tests/corpus/controls/recloser_temp.dss
// Recloser, temporary fault (the golden_phase7_protection recloser_temp
// scenario, promoted to the live gate): the recloser trips FAST on the fault,
// the fault self-clears below MinAmps, and the recloser recloses — ends
// CLOSED. Duty mode, 0.1 s steps, controlmode=time. Compared per step: full
// model + State/Normal probes + the trip/reclose event log + the PENDING
// reclose shots in the control queue between trip and reclose.
clear
Set DefaultBaseFrequency=60

new circuit.prot basekv=12.47 phases=3 bus1=src mvasc3=20000 mvasc1=21000
new linecode.lc nphases=3 r1=0.3 x1=0.6 r0=0.7 x0=1.9 c1=0 c0=0 units=mi
new line.feed bus1=src bus2=mid linecode=lc length=1 units=mi
new line.lat bus1=mid bus2=loadb linecode=lc length=1 units=mi
new load.l bus1=loadb phases=3 kv=12.47 kw=500 pf=0.95 model=1

new recloser.r monitoredobj=line.feed monitoredterm=1
~ switchedobj=line.feed switchedterm=1 numfast=1 shots=2
~ phasetrip=80 groundtrip=40 recloseintervals=(0.5, 1.0)

new fault.f bus1=loadb phases=3 ontime=0.1 r=1 temporary=yes

set voltagebases=[12.47]
calcvoltagebases
set mode=duty stepsize=0.1 number=1 controlmode=time
